06_Joshua_Smith/Detailed_Rox/Loads_QSTS_1.dss
New Load.25248743_1 Phases=1 Bus1=25248743.1 kV=13.2040 kW=0.0013363 kVAR=0.0013363 status=variable Vminpu=0.7 daily=LS_PhaseA
New Load.1710463_3 Phases=1 Bus1=1710463.3 kV=13.2040 kW=0.0020779 kVAR=0.0020779 status=variable Vminpu=0.7 daily=LS_PhaseC
New Load.1585995_2 Phases=1 Bus1=1585995.2 kV=13.2040 kW=0.0011796 kVAR=0.0011796 status=variable Vminpu=0.7 daily=LS_PhaseB
New Load.1599324_1 Phases=1 Bus1=1599324.1 kV=13.2040 kW=0.0013363 kVAR=0.0013363 status=variable Vminpu=0.7 daily=LS_PhaseA
New Load.1708621_1 Phases=1 Bus1=1708621.1 kV=13.2040 kW=0.0022271 kVAR=0.0022271 status=variable Vminpu=0.7 daily=LS_PhaseA
New Load.1599379_2 Phases=1 Bus1=1599379.2 kV=13.2040 kW=0.003932 kVAR=0.003932 status=variable Vminpu=0.7 daily=LS_PhaseB
New Load.25496447_1 Phases=1 Bus1=25496447.1 kV=13.2040 kW=0.0044543 kVAR=0.0044543 status=variable Vminpu=0.7 daily=LS_PhaseA
New Load.1586742_1 Phases=1 Bus1=1586742.1 kV=13.2040 kW=0.0013363 kVAR=0.0013363 status=variable Vminpu=0.7 daily=LS_PhaseA
New Load.26576684_1 Phases=1 Bus1=26576684.1 kV=13.2040 kW=0.044543 kVAR=0.044543 status=variable Vminpu=0.7 daily=LS_PhaseA
New Load.26576684_2 Phases=1 Bus1=26576684.2 kV=13.2040 kW=0.03932 kVAR=0.03932 status=variable Vminpu=0.7 daily=LS_PhaseB
New Load.26576684_3 Phases=1 Bus1=26576684.3 kV=13.2040 kW=0.041559 kVAR=0.041559 status=variable Vminpu=0.7 daily=LS_PhaseC
New Load.1709727_2 Phases=1 Bus1=1709727.2 kV=13.2040 kW=0.002949 kVAR=0.002949 status=variable Vminpu=0.7 daily=LS_PhaseB
New Load.1715712_2 Phases=1 Bus1=1715712.2 kV=13.2040 kW=0.0011796 kVAR=0.0011796 status=variable Vminpu=0.7 daily=LS_PhaseB
New Load.1710338_3 Phases=1 Bus1=1710338.3 kV=13.2040 kW=0.00083117 kVAR=0.00083117 status=variable Vminpu=0.7 daily=LS_PhaseC
New Load.1709576_2 Phases=1 Bus1=1709576.2 kV=13.2040 kW=0.0011796 kVAR=0.0011796 status=variable Vminpu=0.7 daily=LS_PhaseB
New Load.1586961_1 Phases=1 Bus1=1586961.1 kV=13.2040 kW=0.0044543 kVAR=0.0044543 status=variable Vminpu=0.7 daily=LS_PhaseA
New Load.1714914_3 Phases=1 Bus1=1714914.3 kV=13.2040 kW=0.0020779 kVAR=0.0020779 status=variable Vminpu=0.7 daily=LS_PhaseC
New Load.1586245_1 Phases=1 Bus1=1586245.1 kV=13.2040 kW=0.00089085 kVAR=0.00089085 status=variable Vminpu=0.7 daily=LS_PhaseA
New Load.1586024_1 Phases=1 Bus1=1586024.1 kV=13.2040 kW=0.0022271 kVAR=0.0022271 status=variable Vminpu=0.7 daily=LS_PhaseA
New Load.1586986_1 Phases=1 Bus1=1586986.1 kV=13.2040 kW=0.0033407 kVAR=0.0033407 status=variable Vminpu=0.7 daily=LS_PhaseA
New Load.1710402_3 Phases=1 Bus1=1710402.3 kV=13.2040 kW=0.0012468 kVAR=0.0012468 status=variable Vminpu=0.7 daily=LS_PhaseC
New Load.103016080_3 Phases=1 Bus1=103016080.3 kV=13.2040 kW=0.00083117 kVAR=0.00083117 status=variable Vminpu=0.7 daily=LS_PhaseC
New Load.1587011_1 Phases=1 Bus1=1587011.1 kV=13.2040 kW=0.0022271 kVAR=0.0022271 status=variable Vminpu=0.7 daily=LS_PhaseA
New Load.1713190_1 Phases=1 Bus1=1713190.1 kV=13.2040 kW=0.00089085 kVAR=0.00089085 status=variable Vminpu=0.7 daily=LS_PhaseA
New Load.1586963_1 Phases=1 Bus1=1586963.1 kV=13.2040 kW=0.0022271 kVAR=0.0022271 status=variable Vminpu=0.7 daily=LS_PhaseA
New Load.1708750_2 Phases=1 Bus1=1708750.2 kV=13.2040 kW=0.001966 kVAR=0.001966 status=variable Vminpu=0.7 daily=LS_PhaseB
New Load.1715558_1 Phases=1 Bus1=1715558.1 kV=13.2040 kW=0.0022271 kVAR=0.0022271 status=variable Vminpu=0.7 daily=LS_PhaseA
New Load.1709437_3 Phases=1 Bus1=1709437.3 kV=13.2040 kW=0.0020779 kVAR=0.0020779 status=variable Vminpu=0.7 daily=LS_PhaseC
New Load.1709789_2 Phases=1 Bus1=1709789.2 kV=13.2040 kW=0.0011796 kVAR=0.0011796 status=variable Vminpu=0.7 daily=LS_PhaseB
New Load.1709789_3 Phases=1 Bus1=1709789.3 kV=13.2040 kW=0.0031169 kVAR=0.0031169 status=variable Vminpu=0.7 daily=LS_PhaseC
New Load.1709032_1 Phases=1 Bus1=1709032.1 kV=13.2040 kW=0.0013363 kVAR=0.0013363 status=variable Vminpu=0.7 daily=LS_PhaseA
New Load.1710360_2 Phases=1 Bus1=1710360.2 kV=13.2040 kW=0.002949 kVAR=0.002949 status=variable Vminpu=0.7 daily=LS_PhaseB
New Load.1713185_1 Phases=1 Bus1=1713185.1 kV=13.2040 kW=0.0022271 kVAR=0.0022271 status=variable Vminpu=0.7 daily=LS_PhaseA
New Load.1714944_3 Phases=1 Bus1=1714944.3 kV=13.2040 kW=0.0012468 kVAR=0.0012468 status=variable Vminpu=0.7 daily=LS_PhaseC
New Load.1713417_2 Phases=1 Bus1=1713417.2 kV=13.2040 kW=0.001966 kVAR=0.001966 status=variable Vminpu=0.7 daily=LS_PhaseB
New Load.1709832_2 Phases=1 Bus1=1709832.2 kV=13.2040 kW=0.0011796 kVAR=0.0011796 status=variable Vminpu=0.7 daily=LS_PhaseB
New Load.1708721_2 Phases=1 Bus1=1708721.2 kV=13.2040 kW=0.0011796 kVAR=0.0011796 status=variable Vminpu=0.7 daily=LS_PhaseB
New Load.1709507_2 Phases=1 Bus1=1709507.2 kV=13.2040 kW=0.0011796 kVAR=0.0011796 status=variable Vminpu=0.7 daily=LS_PhaseB
New Load.1713148_1 Phases=1 Bus1=1713148.1 kV=13.2040 kW=0.0022271 kVAR=0.0022271 status=variable Vminpu=0.7 daily=LS_PhaseA
New Load.1708695_1 Phases=1 Bus1=1708695.1 kV=13.2040 kW=0.0013363 kVAR=0.0013363 status=variable Vminpu=0.7 daily=LS_PhaseA
New Load.1709404_3 Phases=1 Bus1=1709404.3 kV=13.2040 kW=0.0020779 kVAR=0.0020779 status=variable Vminpu=0.7 daily=LS_PhaseC
New Load.1586132_2 Phases=1 Bus1=1586132.2 kV=13.2040 kW=0.00078639 kVAR=0.00078639 status=variable Vminpu=0.7 daily=LS_PhaseB
New Load.1709537_2 Phases=1 Bus1=1709537.2 kV=13.2040 kW=0.002949 kVAR=0.002949 status=variable Vminpu=0.7 daily=LS_PhaseB
New Load.1709845_3 Phases=1 Bus1=1709845.3 kV=13.2040 kW=0.0031169 kVAR=0.0031169 status=variable Vminpu=0.7 daily=LS_PhaseC
New Load.1709188_2 Phases=1 Bus1=1709188.2 kV=13.2040 kW=0.0011796 kVAR=0.0011796 status=variable Vminpu=0.7 daily=LS_PhaseB
New Load.1713134_2 Phases=1 Bus1=1713134.2 kV=13.2040 kW=0.003932 kVAR=0.003932 status=variable Vminpu=0.7 daily=LS_PhaseB
New Load.1715541_2 Phases=1 Bus1=1715541.2 kV=13.2040 kW=0.002949 kVAR=0.002949 status=variable Vminpu=0.7 daily=LS_PhaseB
New Load.1714211_3 Phases=1 Bus1=1714211.3 kV=13.2040 kW=0.0020779 kVAR=0.0020779 status=variable Vminpu=0.7 daily=LS_PhaseC
New Load.26325342_2 Phases=1 Bus1=26325342.2 kV=13.2040 kW=0.001966 kVAR=0.001966 status=variable Vminpu=0.7 daily=LS_PhaseB
New Load.1586274_1 Phases=1 Bus1=1586274.1 kV=13.2040 kW=0.0013363 kVAR=0.0013363 status=variable Vminpu=0.7 daily=LS_PhaseA
New Load.1713183_1 Phases=1 Bus1=1713183.1 kV=13.2040 kW=0.00089085 kVAR=0.00089085 status=variable Vminpu=0.7 daily=LS_PhaseA
New Load.26682122_2 Phases=1 Bus1=26682122.2 kV=13.2040 kW=0.003932 kVAR=0.003932 status=variable Vminpu=0.7 daily=LS_PhaseB
New Load.1586767_1 Phases=1 Bus1=1586767.1 kV=13.2040 kW=0.0044543 kVAR=0.0044543 status=variable Vminpu=0.7 daily=LS_PhaseA
New Load.1586350_1 Phases=1 Bus1=1586350.1 kV=13.2040 kW=0.0013363 kVAR=0.0013363 status=variable Vminpu=0.7 daily=LS_PhaseA
New Load.1714966_1 Phases=1 Bus1=1714966.1 kV=13.2040 kW=0.0044543 kVAR=0.0044543 status=variable Vminpu=0.7 daily=LS_PhaseA
New Load.1713181_1 Phases=1 Bus1=1713181.1 kV=13.2040 kW=0.0013363 kVAR=0.0013363 status=variable Vminpu=0.7 daily=LS_PhaseA
New Load.1586912_1 Phases=1 Bus1=1586912.1 kV=13.2040 kW=0.0013363 kVAR=0.0013363 status=variable Vminpu=0.7 daily=LS_PhaseA
New Load.1714939_3 Phases=1 Bus1=1714939.3 kV=13.2040 kW=0.0031169 kVAR=0.0031169 status=variable Vminpu=0.7 daily=LS_PhaseC
New Load.1586066_2 Phases=1 Bus1=1586066.2 kV=13.2040 kW=0.00078639 kVAR=0.00078639 status=variable Vminpu=0.7 daily=LS_PhaseB
New Load.1714964_1 Phases=1 Bus1=1714964.1 kV=13.2040 kW=0.0033407 kVAR=0.0033407 status=variable Vminpu=0.7 daily=LS_PhaseA
New Load.1715734_2 Phases=1 Bus1=1715734.2 kV=13.2040 kW=0.002949 kVAR=0.002949 status=variable Vminpu=0.7 daily=LS_PhaseB
New Load.26126568_3 Phases=1 Bus1=26126568.3 kV=13.2040 kW=0.0020779 kVAR=0.0020779 status=variable Vminpu=0.7 daily=LS_PhaseC
New Load.1714942_3 Phases=1 Bus1=1714942.3 kV=13.2040 kW=0.0012468 kVAR=0.0012468 status=variable Vminpu=0.7 daily=LS_PhaseC
New Load.25411737_1 Phases=1 Bus1=25411737.1 kV=13.2040 kW=0.00089085 kVAR=0.00089085 status=variable Vminpu=0.7 daily=LS_PhaseA
New Load.1586011_2 Phases=1 Bus1=1586011.2 kV=13.2040 kW=0.0011796 kVAR=0.0011796 status=variable Vminpu=0.7 daily=LS_PhaseB
New Load.1713530_2 Phases=1 Bus1=1713530.2 kV=13.2040 kW=0.001966 kVAR=0.001966 status=variable Vminpu=0.7 daily=LS_PhaseB
New Load.1586892_1 Phases=1 Bus1=1586892.1 kV=13.2040 kW=0.0022271 kVAR=0.0022271 status=variable Vminpu=0.7 daily=LS_PhaseA
New Load.1729308_1 Phases=1 Bus1=1729308.1 kV=13.2040 kW=0.00089085 kVAR=0.00089085 status=variable Vminpu=0.7 daily=LS_PhaseA
New Load.1729308_3 Phases=1 Bus1=1729308.3 kV=13.2040 kW=0.00083117 kVAR=0.00083117 status=variable Vminpu=0.7 daily=LS_PhaseC
New Load.1587060_1 Phases=1 Bus1=1587060.1 kV=13.2040 kW=0.0022271 kVAR=0.0022271 status=variable Vminpu=0.7 daily=LS_PhaseA
New Load.25248745_1 Phases=1 Bus1=25248745.1 kV=13.2040 kW=0.0022271 kVAR=0.0022271 status=variable Vminpu=0.7 daily=LS_PhaseA
New Load.1713560_2 Phases=1 Bus1=1713560.2 kV=13.2040 kW=0.001966 kVAR=0.001966 status=variable Vminpu=0.7 daily=LS_PhaseB
New Load.1586868_1 Phases=1 Bus1=1586868.1 kV=13.2040 kW=0.00089085 kVAR=0.00089085 status=variable Vminpu=0.7 daily=LS_PhaseA
New Load.1709198_2 Phases=1 Bus1=1709198.2 kV=13.2040 kW=0.002949 kVAR=0.002949 status=variable Vminpu=0.7 daily=LS_PhaseB
New Load.1713098_2 Phases=1 Bus1=1713098.2 kV=13.2040 kW=0.00078639 kVAR=0.00078639 status=variable Vminpu=0.7 daily=LS_PhaseB
New Load.1586799_1 Phases=1 Bus1=1586799.1 kV=13.2040 kW=0.0022271 kVAR=0.0022271 status=variable Vminpu=0.7 daily=LS_PhaseA
New Load.1587051_1 Phases=1 Bus1=1587051.1 kV=13.2040 kW=0.0022271 kVAR=0.0022271 status=variable Vminpu=0.7 daily=LS_PhaseA
New Load.1708646_1 Phases=1 Bus1=1708646.1 kV=13.2040 kW=0.0022271 kVAR=0.0022271 status=variable Vminpu=0.7 daily=LS_PhaseA
New Load.1587090_2 Phases=1 Bus1=1587090.2 kV=13.2040 kW=0.001966 kVAR=0.001966 status=variable Vminpu=0.7 daily=LS_PhaseB
New Load.1709963_2 Phases=1 Bus1=1709963.2 kV=13.2040 kW=0.00078639 kVAR=0.00078639 status=variable Vminpu=0.7 daily=LS_PhaseB
New Load.1709963_3 Phases=1 Bus1=1709963.3 kV=13.2040 kW=0.0012468 kVAR=0.0012468 status=variable Vminpu=0.7 daily=LS_PhaseC
New Load.1713519_2 Phases=1 Bus1=1713519.2 kV=13.2040 kW=0.003932 kVAR=0.003932 status=variable Vminpu=0.7 daily=LS_PhaseB
New Load.1713516_2 Phases=1 Bus1=1713516.2 kV=13.2040 kW=0.002949 kVAR=0.002949 status=variable Vminpu=0.7 daily=LS_PhaseB
New Load.1587173_2 Phases=1 Bus1=1587173.2 kV=13.2040 kW=0.0011796 kVAR=0.0011796 status=variable Vminpu=0.7 daily=LS_PhaseB
New Load.1587013_1 Phases=1 Bus1=1587013.1 kV=13.2040 kW=0.0013363 kVAR=0.0013363 status=variable Vminpu=0.7 daily=LS_PhaseA
New Load.1709383_2 Phases=1 Bus1=1709383.2 kV=13.2040 kW=0.001966 kVAR=0.001966 status=variable Vminpu=0.7 daily=LS_PhaseB
New Load.1710345_1 Phases=1 Bus1=1710345.1 kV=13.2040 kW=0.0022271 kVAR=0.0022271 status=variable Vminpu=0.7 daily=LS_PhaseA
New Load.1709721_1 Phases=1 Bus1=1709721.1 kV=13.2040 kW=0.0022271 kVAR=0.0022271 status=variable Vminpu=0.7 daily=LS_PhaseA
New Load.1708687_1 Phases=1 Bus1=1708687.1 kV=13.2040 kW=0.0013363 kVAR=0.0013363 status=variable Vminpu=0.7 daily=LS_PhaseA
New Load.26376695_2 Phases=1 Bus1=26376695.2 kV=13.2040 kW=0.0078639 kVAR=0.0078639 status=variable Vminpu=0.7 daily=LS_PhaseB
New Load.1587058_1 Phases=1 Bus1=1587058.1 kV=13.2040 kW=0.0022271 kVAR=0.0022271 status=variable Vminpu=0.7 daily=LS_PhaseA
New Load.1586910_1 Phases=1 Bus1=1586910.1 kV=13.2040 kW=0.0013363 kVAR=0.0013363 status=variable Vminpu=0.7 daily=LS_PhaseA
New Load.1715519_2 Phases=1 Bus1=1715519.2 kV=13.2040 kW=0.001966 kVAR=0.001966 status=variable Vminpu=0.7 daily=LS_PhaseB
New Load.1710448_3 Phases=1 Bus1=1710448.3 kV=13.2040 kW=0.0012468 kVAR=0.0012468 status=variable Vminpu=0.7 daily=LS_PhaseC
New Load.1715804_3 Phases=1 Bus1=1715804.3 kV=13.2040 kW=0.0012468 kVAR=0.0012468 status=variable Vminpu=0.7 daily=LS_PhaseC
New Load.103251689_2 Phases=1 Bus1=103251689.2 kV=13.2040 kW=0.001966 kVAR=0.001966 status=variable Vminpu=0.7 daily=LS_PhaseB
New Load.1715543_2 Phases=1 Bus1=1715543.2 kV=13.2040 kW=0.003932 kVAR=0.003932 status=variable Vminpu=0.7 daily=LS_PhaseB
New Load.1709668_3 Phases=1 Bus1=1709668.3 kV=13.2040 kW=0.0020779 kVAR=0.0020779 status=variable Vminpu=0.7 daily=LS_PhaseC
New Load.1713422_2 Phases=1 Bus1=1713422.2 kV=13.2040 kW=0.002949 kVAR=0.002949 status=variable Vminpu=0.7 daily=LS_PhaseB
New Load.1710459_3 Phases=1 Bus1=1710459.3 kV=13.2040 kW=0.0020779 kVAR=0.0020779 status=variable Vminpu=0.7 daily=LS_PhaseC
New Load.1713495_2 Phases=1 Bus1=1713495.2 kV=13.2040 kW=0.002949 kVAR=0.002949 status=variable Vminpu=0.7 daily=LS_PhaseB
New Load.1715955_2 Phases=1 Bus1=1715955.2 kV=13.2040 kW=0.001966 kVAR=0.001966 status=variable Vminpu=0.7 daily=LS_PhaseB
New Load.1713424_2 Phases=1 Bus1=1713424.2 kV=13.2040 kW=0.001966 kVAR=0.001966 status=variable Vminpu=0.7 daily=LS_PhaseB
New Load.1713979_1 Phases=1 Bus1=1713979.1 kV=13.2040 kW=0.0044543 kVAR=0.0044543 status=variable Vminpu=0.7 daily=LS_PhaseA
New Load.1708969_1 Phases=1 Bus1=1708969.1 kV=13.2040 kW=0.0013363 kVAR=0.0013363 status=variable Vminpu=0.7 daily=LS_PhaseA
New Load.1710438_3 Phases=1 Bus1=1710438.3 kV=13.2040 kW=0.0020779 kVAR=0.0020779 status=variable Vminpu=0.7 daily=LS_PhaseC
New Load.1710387_1 Phases=1 Bus1=1710387.1 kV=13.2040 kW=0.0022271 kVAR=0.0022271 status=variable Vminpu=0.7 daily=LS_PhaseA
New Load.1708819_2 Phases=1 Bus1=1708819.2 kV=13.2040 kW=0.0011796 kVAR=0.0011796 status=variable Vminpu=0.7 daily=LS_PhaseB
New Load.1709296_1 Phases=1 Bus1=1709296.1 kV=13.2040 kW=0.00089085 kVAR=0.00089085 status=variable Vminpu=0.7 daily=LS_PhaseA
New Load.1709445_2 Phases=1 Bus1=1709445.2 kV=13.2040 kW=0.00078639 kVAR=0.00078639 status=variable Vminpu=0.7 daily=LS_PhaseB
New Load.1713237_3 Phases=1 Bus1=1713237.3 kV=13.2040 kW=0.0012468 kVAR=0.0012468 status=variable Vminpu=0.7 daily=LS_PhaseC
New Load.1708949_3 Phases=1 Bus1=1708949.3 kV=13.2040 kW=0.0020779 kVAR=0.0020779 status=variable Vminpu=0.7 daily=LS_PhaseC
New Load.26311655_2 Phases=1 Bus1=26311655.2 kV=13.2040 kW=0.003932 kVAR=0.003932 status=variable Vminpu=0.7 daily=LS_PhaseB
New Load.1709588_2 Phases=1 Bus1=1709588.2 kV=13.2040 kW=0.0011796 kVAR=0.0011796 status=variable Vminpu=0.7 daily=LS_PhaseB
New Load.103218191_2 Phases=1 Bus1=103218191.2 kV=13.2040 kW=0.001966 kVAR=0.001966 status=variable Vminpu=0.7 daily=LS_PhaseB
New Load.1729137_1 Phases=1 Bus1=1729137.1 kV=13.2040 kW=0.0033407 kVAR=0.0033407 status=variable Vminpu=0.7 daily=LS_PhaseA
New Load.1729146_1 Phases=1 Bus1=1729146.1 kV=13.2040 kW=0.0033407 kVAR=0.0033407 status=variable Vminpu=0.7 daily=LS_PhaseA
New Load.1599371_2 Phases=1 Bus1=1599371.2 kV=13.2040 kW=0.001966 kVAR=0.001966 status=variable Vminpu=0.7 daily=LS_PhaseB
New Load.1729148_1 Phases=1 Bus1=1729148.1 kV=13.2040 kW=0.0022271 kVAR=0.0022271 status=variable Vminpu=0.7 daily=LS_PhaseA
New Load.25116208_1 Phases=1 Bus1=25116208.1 kV=13.2040 kW=0.0066814 kVAR=0.0066814 status=variable Vminpu=0.7 daily=LS_PhaseA
New Load.1586685_1 Phases=1 Bus1=1586685.1 kV=13.2040 kW=0.0044543 kVAR=0.0044543 status=variable Vminpu=0.7 daily=LS_PhaseA
New Load.26915030_2 Phases=1 Bus1=26915030.2 kV=13.2040 kW=0.001966 kVAR=0.001966 status=variable Vminpu=0.7 daily=LS_PhaseB
New Load.1729215_1 Phases=1 Bus1=1729215.1 kV=13.2040 kW=0.0022271 kVAR=0.0022271 status=variable Vminpu=0.7 daily=LS_PhaseA
New Load.103085628_1 Phases=1 Bus1=103085628.1 kV=13.2040 kW=0.0022271 kVAR=0.0022271 status=variable Vminpu=0.7 daily=LS_PhaseA
New Load.1729139_1 Phases=1 Bus1=1729139.1 kV=13.2040 kW=0.0022271 kVAR=0.0022271 status=variable Vminpu=0.7 daily=LS_PhaseA
New Load.1708980_3 Phases=1 Bus1=1708980.3 kV=13.2040 kW=0.0031169 kVAR=0.0031169 status=variable Vminpu=0.7 daily=LS_PhaseC
New Load.1709026_3 Phases=1 Bus1=1709026.3 kV=13.2040 kW=0.0020779 kVAR=0.0020779 status=variable Vminpu=0.7 daily=LS_PhaseC
New Load.1729317_3 Phases=1 Bus1=1729317.3 kV=13.2040 kW=0.00083117 kVAR=0.00083117 status=variable Vminpu=0.7 daily=LS_PhaseC
New Load.1599373_2 Phases=1 Bus1=1599373.2 kV=13.2040 kW=0.001966 kVAR=0.001966 status=variable Vminpu=0.7 daily=LS_PhaseB
New Load.25017647_3 Phases=1 Bus1=25017647.3 kV=13.2040 kW=0.0012468 kVAR=0.0012468 status=variable Vminpu=0.7 daily=LS_PhaseC
New Load.26873583_1 Phases=1 Bus1=26873583.1 kV=13.2040 kW=0.0089085 kVAR=0.0089085 status=variable Vminpu=0.7 daily=LS_PhaseA
New Load.1713438_2 Phases=1 Bus1=1713438.2 kV=13.2040 kW=0.001966 kVAR=0.001966 status=variable Vminpu=0.7 daily=LS_PhaseB
New Load.1729230_1 Phases=1 Bus1=1729230.1 kV=13.2040 kW=0.0022271 kVAR=0.0022271 status=variable Vminpu=0.7 daily=LS_PhaseA
New Load.1599369_2 Phases=1 Bus1=1599369.2 kV=13.2040 kW=0.002949 kVAR=0.002949 status=variable Vminpu=0.7 daily=LS_PhaseB
New Load.1729164_2 Phases=1 Bus1=1729164.2 kV=13.2040 kW=0.002949 kVAR=0.002949 status=variable Vminpu=0.7 daily=LS_PhaseB
New Load.26085028_1 Phases=1 Bus1=26085028.1 kV=13.2040 kW=0.0044543 kVAR=0.0044543 status=variable Vminpu=0.7 daily=LS_PhaseA
New Load.26085028_2 Phases=1 Bus1=26085028.2 kV=13.2040 kW=0.003932 kVAR=0.003932 status=variable Vminpu=0.7 daily=LS_PhaseB
New Load.26085028_3 Phases=1 Bus1=26085028.3 kV=13.2040 kW=0.0041559 kVAR=0.0041559 status=variable Vminpu=0.7 daily=LS_PhaseC
New Load.1709569_3 Phases=1 Bus1=1709569.3 kV=13.2040 kW=0.0020779 kVAR=0.0020779 status=variable Vminpu=0.7 daily=LS_PhaseC
New Load.1599309_1 Phases=1 Bus1=1599309.1 kV=13.2040 kW=0.0022271 kVAR=0.0022271 status=variable Vminpu=0.7 daily=LS_PhaseA
New Load.1713946_1 Phases=1 Bus1=1713946.1 kV=13.2040 kW=0.0044543 kVAR=0.0044543 status=variable Vminpu=0.7 daily=LS_PhaseA
New Load.1599183_2 Phases=1 Bus1=1599183.2 kV=13.2040 kW=0.001966 kVAR=0.001966 status=variable Vminpu=0.7 daily=LS_PhaseB
New Load.103172022_2 Phases=1 Bus1=103172022.2 kV=13.2040 kW=0.001966 kVAR=0.001966 status=variable Vminpu=0.7 daily=LS_PhaseB
New Load.1713436_2 Phases=1 Bus1=1713436.2 kV=13.2040 kW=0.002949 kVAR=0.002949 status=variable Vminpu=0.7 daily=LS_PhaseB
New Load.1586554_1 Phases=1 Bus1=1586554.1 kV=13.2040 kW=0.0013363 kVAR=0.0013363 status=variable Vminpu=0.7 daily=LS_PhaseA
New Load.26069771_2 Phases=1 Bus1=26069771.2 kV=13.2040 kW=0.0011796 kVAR=0.0011796 status=variable Vminpu=0.7 daily=LS_PhaseB
New Load.1586314_1 Phases=1 Bus1=1586314.1 kV=13.2040 kW=0.0022271 kVAR=0.0022271 status=variable Vminpu=0.7 daily=LS_PhaseA
New Load.103218089_1 Phases=1 Bus1=103218089.1 kV=13.2040 kW=0.0044543 kVAR=0.0044543 status=variable Vminpu=0.7 daily=LS_PhaseA
New Load.25794216_3 Phases=1 Bus1=25794216.3 kV=13.2040 kW=0.0031169 kVAR=0.0031169 status=variable Vminpu=0.7 daily=LS_PhaseC
New Load.1587258_2 Phases=1 Bus1=1587258.2 kV=13.2040 kW=0.001966 kVAR=0.001966 status=variable Vminpu=0.7 daily=LS_PhaseB
New Load.1713128_2 Phases=1 Bus1=1713128.2 kV=13.2040 kW=0.0011796 kVAR=0.0011796 status=variable Vminpu=0.7 daily=LS_PhaseB
New Load.103366548_1 Phases=1 Bus1=103366548.1 kV=13.2040 kW=0.0022271 kVAR=0.0022271 status=variable Vminpu=0.7 daily=LS_PhaseA
New Load.1709389_2 Phases=1 Bus1=1709389.2 kV=13.2040 kW=0.0011796 kVAR=0.0011796 status=variable Vminpu=0.7 daily=LS_PhaseB
New Load.1586701_1 Phases=1 Bus1=1586701.1 kV=13.2040 kW=0.0022271 kVAR=0.0022271 status=variable Vminpu=0.7 daily=LS_PhaseA
New Load.1586106_2 Phases=1 Bus1=1586106.2 kV=13.2040 kW=0.0011796 kVAR=0.0011796 status=variable Vminpu=0.7 daily=LS_PhaseB
New Load.1713121_2 Phases=1 Bus1=1713121.2 kV=13.2040 kW=0.001966 kVAR=0.001966 status=variable Vminpu=0.7 daily=LS_PhaseB
New Load.1586536_1 Phases=1 Bus1=1586536.1 kV=13.2040 kW=0.0022271 kVAR=0.0022271 status=variable Vminpu=0.7 daily=LS_PhaseA
New Load.1709433_1 Phases=1 Bus1=1709433.1 kV=13.2040 kW=0.0022271 kVAR=0.0022271 status=variable Vminpu=0.7 daily=LS_PhaseA
New Load.1585857_1 Phases=1 Bus1=1585857.1 kV=13.2040 kW=0.0022271 kVAR=0.0022271 status=variable Vminpu=0.7 daily=LS_PhaseA
New Load.1709336_2 Phases=1 Bus1=1709336.2 kV=13.2040 kW=0.00078639 kVAR=0.00078639 status=variable Vminpu=0.7 daily=LS_PhaseB
New Load.26767615_1 Phases=1 Bus1=26767615.1 kV=13.2040 kW=0.074238 kVAR=0.074238 status=variable Vminpu=0.7 daily=LS_PhaseA
New Load.26767615_2 Phases=1 Bus1=26767615.2 kV=13.2040 kW=0.065533 kVAR=0.065533 status=variable Vminpu=0.7 daily=LS_PhaseB
New Load.26767615_3 Phases=1 Bus1=26767615.3 kV=13.2040 kW=0.069264 kVAR=0.069264 status=variable Vminpu=0.7 daily=LS_PhaseC
New Load.25153936_1 Phases=1 Bus1=25153936.1 kV=13.2040 kW=0.0022271 kVAR=0.0022271 status=variable Vminpu=0.7 daily=LS_PhaseA
New Load.1713196_1 Phases=1 Bus1=1713196.1 kV=13.2040 kW=0.00089085 kVAR=0.00089085 status=variable Vminpu=0.7 daily=LS_PhaseA
New Load.1586137_1 Phases=1 Bus1=1586137.1 kV=13.2040 kW=0.00089085 kVAR=0.00089085 status=variable Vminpu=0.7 daily=LS_PhaseA
New Load.26365187_3 Phases=1 Bus1=26365187.3 kV=13.2040 kW=0.0020779 kVAR=0.0020779 status=variable Vminpu=0.7 daily=LS_PhaseC
New Load.103655594_3 Phases=1 Bus1=103655594.3 kV=13.2040 kW=0.0041559 kVAR=0.0041559 status=variable Vminpu=0.7 daily=LS_PhaseC
New Load.25912164_2 Phases=1 Bus1=25912164.2 kV=13.2040 kW=0.001966 kVAR=0.001966 status=variable Vminpu=0.7 daily=LS_PhaseB
New Load.1709467_2 Phases=1 Bus1=1709467.2 kV=13.2040 kW=0.001966 kVAR=0.001966 status=variable Vminpu=0.7 daily=LS_PhaseB
New Load.1586697_1 Phases=1 Bus1=1586697.1 kV=13.2040 kW=0.0013363 kVAR=0.0013363 status=variable Vminpu=0.7 daily=LS_PhaseA
New Load.1709819_3 Phases=1 Bus1=1709819.3 kV=13.2040 kW=0.0012468 kVAR=0.0012468 status=variable Vminpu=0.7 daily=LS_PhaseC
New Load.25431312_1 Phases=1 Bus1=25431312.1 kV=13.2040 kW=0.0022271 kVAR=0.0022271 status=variable Vminpu=0.7 daily=LS_PhaseA
New Load.25431312_2 Phases=1 Bus1=25431312.2 kV=13.2040 kW=0.001966 kVAR=0.001966 status=variable Vminpu=0.7 daily=LS_PhaseB
New Load.25431312_3 Phases=1 Bus1=25431312.3 kV=13.2040 kW=0.0020779 kVAR=0.0020779 status=variable Vminpu=0.7 daily=LS_PhaseC
New Load.1709385_2 Phases=1 Bus1=1709385.2 kV=13.2040 kW=0.001966 kVAR=0.001966 status=variable Vminpu=0.7 daily=LS_PhaseB
New Load.1713210_1 Phases=1 Bus1=1713210.1 kV=13.2040 kW=0.00089085 kVAR=0.00089085 status=variable Vminpu=0.7 daily=LS_PhaseA
New Load.1587031_2 Phases=1 Bus1=1587031.2 kV=13.2040 kW=0.001966 kVAR=0.001966 status=variable Vminpu=0.7 daily=LS_PhaseB
New Load.1586812_1 Phases=1 Bus1=1586812.1 kV=13.2040 kW=0.0022271 kVAR=0.0022271 status=variable Vminpu=0.7 daily=LS_PhaseA
New Load.1709674_3 Phases=1 Bus1=1709674.3 kV=13.2040 kW=0.0012468 kVAR=0.0012468 status=variable Vminpu=0.7 daily=LS_PhaseC
New Load.1713524_2 Phases=1 Bus1=1713524.2 kV=13.2040 kW=0.0011796 kVAR=0.0011796 status=variable Vminpu=0.7 daily=LS_PhaseB
New Load.1715676_2 Phases=1 Bus1=1715676.2 kV=13.2040 kW=0.001966 kVAR=0.001966 status=variable Vminpu=0.7 daily=LS_PhaseB
New Load.1714922_2 Phases=1 Bus1=1714922.2 kV=13.2040 kW=0.001966 kVAR=0.001966 status=variable Vminpu=0.7 daily=LS_PhaseB
New Load.1587008_1 Phases=1 Bus1=1587008.1 kV=13.2040 kW=0.0022271 kVAR=0.0022271 status=variable Vminpu=0.7 daily=LS_PhaseA
New Load.1586820_1 Phases=1 Bus1=1586820.1 kV=13.2040 kW=0.0013363 kVAR=0.0013363 status=variable Vminpu=0.7 daily=LS_PhaseA
New Load.1586448_1 Phases=1 Bus1=1586448.1 kV=13.2040 kW=0.0022271 kVAR=0.0022271 status=variable Vminpu=0.7 daily=LS_PhaseA
New Load.1586946_1 Phases=1 Bus1=1586946.1 kV=13.2040 kW=0.0013363 kVAR=0.0013363 status=variable Vminpu=0.7 daily=LS_PhaseA
New Load.1586905_1 Phases=1 Bus1=1586905.1 kV=13.2040 kW=0.0022271 kVAR=0.0022271 status=variable Vminpu=0.7 daily=LS_PhaseA
New Load.1586940_1 Phases=1 Bus1=1586940.1 kV=13.2040 kW=0.00089085 kVAR=0.00089085 status=variable Vminpu=0.7 daily=LS_PhaseA
New Load.26328209_1 Phases=1 Bus1=26328209.1 kV=13.2040 kW=0.014848 kVAR=0.014848 status=variable Vminpu=0.7 daily=LS_PhaseA
New Load.26328209_2 Phases=1 Bus1=26328209.2 kV=13.2040 kW=0.013107 kVAR=0.013107 status=variable Vminpu=0.7 daily=LS_PhaseB
New Load.26328209_3 Phases=1 Bus1=26328209.3 kV=13.2040 kW=0.013853 kVAR=0.013853 status=variable Vminpu=0.7 daily=LS_PhaseC
New Load.1709460_2 Phases=1 Bus1=1709460.2 kV=13.2040 kW=0.001966 kVAR=0.001966 status=variable Vminpu=0.7 daily=LS_PhaseB
New Load.1585784_3 Phases=1 Bus1=1585784.3 kV=13.2040 kW=0.0012468 kVAR=0.0012468 status=variable Vminpu=0.7 daily=LS_PhaseC
New Load.1715893_1 Phases=1 Bus1=1715893.1 kV=13.2040 kW=0.0044543 kVAR=0.0044543 status=variable Vminpu=0.7 daily=LS_PhaseA
New Load.1715893_2 Phases=1 Bus1=1715893.2 kV=13.2040 kW=0.003932 kVAR=0.003932 status=variable Vminpu=0.7 daily=LS_PhaseB
New Load.1715893_3 Phases=1 Bus1=1715893.3 kV=13.2040 kW=0.0041559 kVAR=0.0041559 status=variable Vminpu=0.7 daily=LS_PhaseC
New Load.103557761_1 Phases=1 Bus1=103557761.1 kV=13.2040 kW=0.0089085 kVAR=0.0089085 status=variable Vminpu=0.7 daily=LS_PhaseA
New Load.103557761_2 Phases=1 Bus1=103557761.2 kV=13.2040 kW=0.0078639 kVAR=0.0078639 status=variable Vminpu=0.7 daily=LS_PhaseB
New Load.103557761_3 Phases=1 Bus1=103557761.3 kV=13.2040 kW=0.0083117 kVAR=0.0083117 status=variable Vminpu=0.7 daily=LS_PhaseC
...
